5
Coordinates from ORCA-job chloromethane_C3v
  C   -0.09183540858272     -0.09183540843993     -0.09183540848617
  Cl  0.95643552833258      0.95643552807486      0.95643552829287
  H   -0.71181540287057     -0.71181540299479      0.55903068618954
  H   0.55903068625850     -0.71181540282212     -0.71181540277817
  H   -0.71181540313779      0.55903068618199     -0.71181540321807
