4
Coordinates from ORCA-job NH3_C3v
  N   -7.22739085275596      0.82906814593108      0.00270930884831
  H   -6.19859336144949      0.91950823273802     -0.00121974521668
  H   -7.52759828775990      1.35361373873921     -0.83474972853867
  H   -7.52760749803464      1.42428988259168      0.79150016490704
